{
   "completed_at" : "20240227T003241Z",
   "completed_status" : "Fail",
   "created_at" : "2024-02-26T17:30:57",
   "current_step" : 8,
   "eplusout_err" : "Program Version,EnergyPlus, Version 23.1.0-87ed9199d4, YMD=2024.02.26 17:32,\n   ** Warning ** Timestep: Requested number (1) is less than the suggested minimum of 4.\n   **   ~~~   ** Please see entry for Timestep in Input/Output Reference for discussion of considerations.\n   ** Warning ** PerformancePrecisionTradeoffs: Carroll MRT radiant exchange method is selected.\n   ** Warning ** ProcessScheduleInput: Schedule:Constant=\"ALWAYS OFF DISCRETE\", Blank Schedule Type Limits Name input -- will not be validated.\n   ** Warning ** ProcessScheduleInput: Schedule:Constant=\"ALWAYS ON CONTINUOUS\", Blank Schedule Type Limits Name input -- will not be validated.\n   ** Warning ** CalculateZoneVolume: 1 zone is not fully enclosed. For more details use:  Output:Diagnostics,DisplayExtrawarnings; \n   ** Warning ** GetDXCoils: Coil:Heating:DX:SingleSpeed=\"AIR SOURCE HEAT PUMP HTG COIL\" curve values\n   **   ~~~   ** ... Defrost Energy Input Ratio Function of Temperature Curve Name = DEFROSTEIR output is not equal to 1.0 (+ or - 10%) at rated conditions.\n   **   ~~~   ** ... Curve output at rated conditions = 0.152\n   ** Warning ** Check input. Pump nominal power or motor efficiency is set to 0, for pump=PUMP VARIABLE SPEED 1\n   ** Warning ** Output:Meter: invalid Key Name=\"NATURALGAS:FACILITY\" - not found.\n   ** Warning ** Output:Meter: invalid Key Name=\"DISTRICTCOOLING:FACILITY\" - not found.\n   ** Warning ** Output:Meter: invalid Key Name=\"DISTRICTHEATING:FACILITY\" - not found.\n   ** Warning ** Output:Meter:MeterFileOnly: invalid Key Name=\"NATURALGAS:FACILITY\" - not found.\n   ** Warning ** Output:Meter:MeterFileOnly requested for \"Electricity:Facility\" (TimeStep), already on \"Output:Meter\". Will report to both eplusout.eso and eplusout.mtr\n   ************* Testing Individual Branch Integrity\n   ************* All Branches passed integrity testing\n   ************* Testing Individual Supply Air Path Integrity\n   ************* All Supply Air Paths passed integrity testing\n   ************* Testing Individual Return Air Path Integrity\n   ************* All Return Air Paths passed integrity testing\n   ************* No node connection errors were found.\n   ************* Beginning Simulation\n   ** Warning ** In Output:Table:Monthly 'BUILDING ENERGY PERFORMANCE - ELECTRICITY' invalid Variable or Meter Name 'EXTERIOREQUIPMENT:ELECTRICITY'\n   ** Warning ** In Output:Table:Monthly 'BUILDING ENERGY PERFORMANCE - ELECTRICITY' invalid Variable or Meter Name 'HEATREJECTION:ELECTRICITY'\n   ** Warning ** In Output:Table:Monthly 'BUILDING ENERGY PERFORMANCE - ELECTRICITY' invalid Variable or Meter Name 'HUMIDIFIER:ELECTRICITY'\n   ** Warning ** In Output:Table:Monthly 'BUILDING ENERGY PERFORMANCE - ELECTRICITY' invalid Variable or Meter Name 'HEATRECOVERY:ELECTRICITY'\n   ** Warning ** In Output:Table:Monthly 'BUILDING ENERGY PERFORMANCE - ELECTRICITY' invalid Variable or Meter Name 'COGENERATION:ELECTRICITY'\n   ** Warning ** In Output:Table:Monthly 'BUILDING ENERGY PERFORMANCE - ELECTRICITY' invalid Variable or Meter Name 'REFRIGERATION:ELECTRICITY'\n   ** Warning ** In Output:Table:Monthly 'BUILDING ENERGY PERFORMANCE - NATURAL GAS' invalid Variable or Meter Name 'INTERIOREQUIPMENT:NATURALGAS'\n   ** Warning ** In Output:Table:Monthly 'BUILDING ENERGY PERFORMANCE - NATURAL GAS' invalid Variable or Meter Name 'EXTERIOREQUIPMENT:NATURALGAS'\n   ** Warning ** In Output:Table:Monthly 'BUILDING ENERGY PERFORMANCE - NATURAL GAS' invalid Variable or Meter Name 'HEATING:NATURALGAS'\n   ** Warning ** In Output:Table:Monthly 'BUILDING ENERGY PERFORMANCE - NATURAL GAS' invalid Variable or Meter Name 'COOLING:NATURALGAS'\n   ** Warning ** In Output:Table:Monthly 'BUILDING ENERGY PERFORMANCE - NATURAL GAS' invalid Variable or Meter Name 'WATERSYSTEMS:NATURALGAS'\n   ** Warning ** In Output:Table:Monthly 'BUILDING ENERGY PERFORMANCE - NATURAL GAS' invalid Variable or Meter Name 'COGENERATION:NATURALGAS'\n   ** Warning ** In Output:Table:Monthly 'BUILDING ENERGY PERFORMANCE - DISTRICT HEATING' invalid Variable or Meter Name 'INTERIORLIGHTS:DISTRICTHEATING'\n   ** Warning ** In Output:Table:Monthly 'BUILDING ENERGY PERFORMANCE - DISTRICT HEATING' invalid Variable or Meter Name 'EXTERIORLIGHTS:DISTRICTHEATING'\n   ** Warning ** In Output:Table:Monthly 'BUILDING ENERGY PERFORMANCE - DISTRICT HEATING' invalid Variable or Meter Name 'INTERIOREQUIPMENT:DISTRICTHEATING'\n   ** Warning ** In Output:Table:Monthly 'BUILDING ENERGY PERFORMANCE - DISTRICT HEATING' invalid Variable or Meter Name 'EXTERIOREQUIPMENT:DISTRICTHEATING'\n   ** Warning ** In Output:Table:Monthly 'BUILDING ENERGY PERFORMANCE - DISTRICT HEATING' invalid Variable or Meter Name 'FANS:DISTRICTHEATING'\n   ** Warning ** In Output:Table:Monthly 'BUILDING ENERGY PERFORMANCE - DISTRICT HEATING' invalid Variable or Meter Name 'PUMPS:DISTRICTHEATING'\n   ** Warning ** In Output:Table:Monthly 'BUILDING ENERGY PERFORMANCE - DISTRICT HEATING' invalid Variable or Meter Name 'HEATING:DISTRICTHEATING'\n   ** Warning ** In Output:Table:Monthly 'BUILDING ENERGY PERFORMANCE - DISTRICT HEATING' invalid Variable or Meter Name 'COOLING:DISTRICTHEATING'\n   ** Warning ** In Output:Table:Monthly 'BUILDING ENERGY PERFORMANCE - DISTRICT HEATING' invalid Variable or Meter Name 'HEATREJECTION:DISTRICTHEATING'\n   ** Warning ** In Output:Table:Monthly 'BUILDING ENERGY PERFORMANCE - DISTRICT HEATING' invalid Variable or Meter Name 'HUMIDIFIER:DISTRICTHEATING'\n   ** Warning ** In Output:Table:Monthly 'BUILDING ENERGY PERFORMANCE - DISTRICT HEATING' invalid Variable or Meter Name 'HEATRECOVERY:DISTRICTHEATING'\n   ** Warning ** In Output:Table:Monthly 'BUILDING ENERGY PERFORMANCE - DISTRICT HEATING' invalid Variable or Meter Name 'WATERSYSTEMS:DISTRICTHEATING'\n   ** Warning ** In Output:Table:Monthly 'BUILDING ENERGY PERFORMANCE - DISTRICT HEATING' invalid Variable or Meter Name 'COGENERATION:DISTRICTHEATING'\n   ** Warning ** In Output:Table:Monthly 'BUILDING ENERGY PERFORMANCE - DISTRICT COOLING' invalid Variable or Meter Name 'INTERIORLIGHTS:DISTRICTCOOLING'\n   ** Warning ** In Output:Table:Monthly 'BUILDING ENERGY PERFORMANCE - DISTRICT COOLING' invalid Variable or Meter Name 'EXTERIORLIGHTS:DISTRICTCOOLING'\n   ** Warning ** In Output:Table:Monthly 'BUILDING ENERGY PERFORMANCE - DISTRICT COOLING' invalid Variable or Meter Name 'INTERIOREQUIPMENT:DISTRICTCOOLING'\n   ** Warning ** In Output:Table:Monthly 'BUILDING ENERGY PERFORMANCE - DISTRICT COOLING' invalid Variable or Meter Name 'EXTERIOREQUIPMENT:DISTRICTCOOLING'\n   ** Warning ** In Output:Table:Monthly 'BUILDING ENERGY PERFORMANCE - DISTRICT COOLING' invalid Variable or Meter Name 'FANS:DISTRICTCOOLING'\n   ** Warning ** In Output:Table:Monthly 'BUILDING ENERGY PERFORMANCE - DISTRICT COOLING' invalid Variable or Meter Name 'PUMPS:DISTRICTCOOLING'\n   ** Warning ** In Output:Table:Monthly 'BUILDING ENERGY PERFORMANCE - DISTRICT COOLING' invalid Variable or Meter Name 'HEATING:DISTRICTCOOLING'\n   ** Warning ** In Output:Table:Monthly 'BUILDING ENERGY PERFORMANCE - DISTRICT COOLING' invalid Variable or Meter Name 'COOLING:DISTRICTCOOLING'\n   ** Warning ** In Output:Table:Monthly 'BUILDING ENERGY PERFORMANCE - DISTRICT COOLING' invalid Variable or Meter Name 'HEATREJECTION:DISTRICTCOOLING'\n   ** Warning ** In Output:Table:Monthly 'BUILDING ENERGY PERFORMANCE - DISTRICT COOLING' invalid Variable or Meter Name 'HUMIDIFIER:DISTRICTCOOLING'\n   ** Warning ** In Output:Table:Monthly 'BUILDING ENERGY PERFORMANCE - DISTRICT COOLING' invalid Variable or Meter Name 'HEATRECOVERY:DISTRICTCOOLING'\n   ** Warning ** In Output:Table:Monthly 'BUILDING ENERGY PERFORMANCE - DISTRICT COOLING' invalid Variable or Meter Name 'WATERSYSTEMS:DISTRICTCOOLING'\n   ** Warning ** In Output:Table:Monthly 'BUILDING ENERGY PERFORMANCE - DISTRICT COOLING' invalid Variable or Meter Name 'COGENERATION:DISTRICTCOOLING'\n   ** Warning ** In Output:Table:Monthly 'BUILDING ENERGY PERFORMANCE - ELECTRICITY PEAK DEMAND' invalid Variable or Meter Name 'EXTERIOREQUIPMENT:ELECTRICITY'\n   ** Warning ** In Output:Table:Monthly 'BUILDING ENERGY PERFORMANCE - ELECTRICITY PEAK DEMAND' invalid Variable or Meter Name 'HEATREJECTION:ELECTRICITY'\n   ** Warning ** In Output:Table:Monthly 'BUILDING ENERGY PERFORMANCE - ELECTRICITY PEAK DEMAND' invalid Variable or Meter Name 'HUMIDIFIER:ELECTRICITY'\n   ** Warning ** In Output:Table:Monthly 'BUILDING ENERGY PERFORMANCE - ELECTRICITY PEAK DEMAND' invalid Variable or Meter Name 'HEATRECOVERY:ELECTRICITY'\n   ** Warning ** In Output:Table:Monthly 'BUILDING ENERGY PERFORMANCE - ELECTRICITY PEAK DEMAND' invalid Variable or Meter Name 'COGENERATION:ELECTRICITY'\n   ** Warning ** In Output:Table:Monthly 'BUILDING ENERGY PERFORMANCE - NATURAL GAS PEAK DEMAND' invalid Variable or Meter Name 'NATURALGAS:FACILITY'\n   ** Warning ** In Output:Table:Monthly 'BUILDING ENERGY PERFORMANCE - NATURAL GAS PEAK DEMAND' invalid Variable or Meter Name 'INTERIOREQUIPMENT:NATURALGAS'\n   ** Warning ** In Output:Table:Monthly 'BUILDING ENERGY PERFORMANCE - NATURAL GAS PEAK DEMAND' invalid Variable or Meter Name 'EXTERIOREQUIPMENT:NATURALGAS'\n   ** Warning ** In Output:Table:Monthly 'BUILDING ENERGY PERFORMANCE - NATURAL GAS PEAK DEMAND' invalid Variable or Meter Name 'HEATING:NATURALGAS'\n   ** Warning ** In Output:Table:Monthly 'BUILDING ENERGY PERFORMANCE - NATURAL GAS PEAK DEMAND' invalid Variable or Meter Name 'COOLING:NATURALGAS'\n   ** Warning ** In Output:Table:Monthly 'BUILDING ENERGY PERFORMANCE - NATURAL GAS PEAK DEMAND' invalid Variable or Meter Name 'WATERSYSTEMS:NATURALGAS'\n   ** Warning ** In Output:Table:Monthly 'BUILDING ENERGY PERFORMANCE - NATURAL GAS PEAK DEMAND' invalid Variable or Meter Name 'COGENERATION:NATURALGAS'\n   ** Warning ** In Output:Table:Monthly 'BUILDING ENERGY PERFORMANCE - DISTRICT HEATING PEAK DEMAND' invalid Variable or Meter Name 'DISTRICTHEATING:FACILITY'\n   ** Warning ** In Output:Table:Monthly 'BUILDING ENERGY PERFORMANCE - DISTRICT HEATING PEAK DEMAND' invalid Variable or Meter Name 'INTERIORLIGHTS:DISTRICTHEATING'\n   ** Warning ** In Output:Table:Monthly 'BUILDING ENERGY PERFORMANCE - DISTRICT HEATING PEAK DEMAND' invalid Variable or Meter Name 'EXTERIORLIGHTS:DISTRICTHEATING'\n   ** Warning ** In Output:Table:Monthly 'BUILDING ENERGY PERFORMANCE - DISTRICT HEATING PEAK DEMAND' invalid Variable or Meter Name 'INTERIOREQUIPMENT:DISTRICTHEATING'\n   ** Warning ** In Output:Table:Monthly 'BUILDING ENERGY PERFORMANCE - DISTRICT HEATING PEAK DEMAND' invalid Variable or Meter Name 'EXTERIOREQUIPMENT:DISTRICTHEATING'\n   ** Warning ** In Output:Table:Monthly 'BUILDING ENERGY PERFORMANCE - DISTRICT HEATING PEAK DEMAND' invalid Variable or Meter Name 'FANS:DISTRICTHEATING'\n   ** Warning ** In Output:Table:Monthly 'BUILDING ENERGY PERFORMANCE - DISTRICT HEATING PEAK DEMAND' invalid Variable or Meter Name 'PUMPS:DISTRICTHEATING'\n   ** Warning ** In Output:Table:Monthly 'BUILDING ENERGY PERFORMANCE - DISTRICT HEATING PEAK DEMAND' invalid Variable or Meter Name 'HEATING:DISTRICTHEATING'\n   ** Warning ** In Output:Table:Monthly 'BUILDING ENERGY PERFORMANCE - DISTRICT HEATING PEAK DEMAND' invalid Variable or Meter Name 'COOLING:DISTRICTHEATING'\n   ** Warning ** In Output:Table:Monthly 'BUILDING ENERGY PERFORMANCE - DISTRICT HEATING PEAK DEMAND' invalid Variable or Meter Name 'HEATREJECTION:DISTRICTHEATING'\n   ** Warning ** In Output:Table:Monthly 'BUILDING ENERGY PERFORMANCE - DISTRICT HEATING PEAK DEMAND' invalid Variable or Meter Name 'HUMIDIFIER:DISTRICTHEATING'\n   ** Warning ** In Output:Table:Monthly 'BUILDING ENERGY PERFORMANCE - DISTRICT HEATING PEAK DEMAND' invalid Variable or Meter Name 'HEATRECOVERY:DISTRICTHEATING'\n   ** Warning ** In Output:Table:Monthly 'BUILDING ENERGY PERFORMANCE - DISTRICT HEATING PEAK DEMAND' invalid Variable or Meter Name 'WATERSYSTEMS:DISTRICTHEATING'\n   ** Warning ** In Output:Table:Monthly 'BUILDING ENERGY PERFORMANCE - DISTRICT HEATING PEAK DEMAND' invalid Variable or Meter Name 'COGENERATION:DISTRICTHEATING'\n   ** Warning ** In Output:Table:Monthly 'BUILDING ENERGY PERFORMANCE - DISTRICT COOLING PEAK DEMAND' invalid Variable or Meter Name 'DISTRICTCOOLING:FACILITY'\n   ** Warning ** In Output:Table:Monthly 'BUILDING ENERGY PERFORMANCE - DISTRICT COOLING PEAK DEMAND' invalid Variable or Meter Name 'INTERIORLIGHTS:DISTRICTCOOLING'\n   ** Warning ** In Output:Table:Monthly 'BUILDING ENERGY PERFORMANCE - DISTRICT COOLING PEAK DEMAND' invalid Variable or Meter Name 'EXTERIORLIGHTS:DISTRICTCOOLING'\n   ** Warning ** In Output:Table:Monthly 'BUILDING ENERGY PERFORMANCE - DISTRICT COOLING PEAK DEMAND' invalid Variable or Meter Name 'INTERIOREQUIPMENT:DISTRICTCOOLING'\n   ** Warning ** In Output:Table:Monthly 'BUILDING ENERGY PERFORMANCE - DISTRICT COOLING PEAK DEMAND' invalid Variable or Meter Name 'EXTERIOREQUIPMENT:DISTRICTCOOLING'\n   ** Warning ** In Output:Table:Monthly 'BUILDING ENERGY PERFORMANCE - DISTRICT COOLING PEAK DEMAND' invalid Variable or Meter Name 'FANS:DISTRICTCOOLING'\n   ** Warning ** In Output:Table:Monthly 'BUILDING ENERGY PERFORMANCE - DISTRICT COOLING PEAK DEMAND' invalid Variable or Meter Name 'PUMPS:DISTRICTCOOLING'\n   ** Warning ** In Output:Table:Monthly 'BUILDING ENERGY PERFORMANCE - DISTRICT COOLING PEAK DEMAND' invalid Variable or Meter Name 'HEATING:DISTRICTCOOLING'\n   ** Warning ** In Output:Table:Monthly 'BUILDING ENERGY PERFORMANCE - DISTRICT COOLING PEAK DEMAND' invalid Variable or Meter Name 'COOLING:DISTRICTCOOLING'\n   ** Warning ** In Output:Table:Monthly 'BUILDING ENERGY PERFORMANCE - DISTRICT COOLING PEAK DEMAND' invalid Variable or Meter Name 'HEATREJECTION:DISTRICTCOOLING'\n   ** Warning ** In Output:Table:Monthly 'BUILDING ENERGY PERFORMANCE - DISTRICT COOLING PEAK DEMAND' invalid Variable or Meter Name 'HUMIDIFIER:DISTRICTCOOLING'\n   ** Warning ** In Output:Table:Monthly 'BUILDING ENERGY PERFORMANCE - DISTRICT COOLING PEAK DEMAND' invalid Variable or Meter Name 'HEATRECOVERY:DISTRICTCOOLING'\n   ** Warning ** In Output:Table:Monthly 'BUILDING ENERGY PERFORMANCE - DISTRICT COOLING PEAK DEMAND' invalid Variable or Meter Name 'WATERSYSTEMS:DISTRICTCOOLING'\n   ** Warning ** In Output:Table:Monthly 'BUILDING ENERGY PERFORMANCE - DISTRICT COOLING PEAK DEMAND' invalid Variable or Meter Name 'COGENERATION:DISTRICTCOOLING'\n   ** Warning ** Processing Monthly Tabular Reports: Variable names not valid for this simulation\n   **   ~~~   ** ...use Output:Diagnostics,DisplayExtraWarnings; to show more details on individual variables.\n   ** Warning ** The resource referenced by LifeCycleCost:UsePriceEscalation= \"U.S. AVG  COMMERCIAL-ELECTRICITY\" has no energy cost. \n   **   ~~~   ** ... It is likely that the wrong resource is used. The resource should match the meter used in Utility:Tariff.\n   ** Warning ** The resource referenced by LifeCycleCost:UsePriceEscalation= \"U.S. AVG  COMMERCIAL-DISTILLATE OIL\" has no energy cost. \n   **   ~~~   ** ... It is likely that the wrong resource is used. The resource should match the meter used in Utility:Tariff.\n   ** Warning ** The resource referenced by LifeCycleCost:UsePriceEscalation= \"U.S. AVG  COMMERCIAL-RESIDUAL OIL\" has no energy cost. \n   **   ~~~   ** ... It is likely that the wrong resource is used. The resource should match the meter used in Utility:Tariff.\n   ** Warning ** The resource referenced by LifeCycleCost:UsePriceEscalation= \"U.S. AVG  COMMERCIAL-NATURAL GAS\" has no energy cost. \n   **   ~~~   ** ... It is likely that the wrong resource is used. The resource should match the meter used in Utility:Tariff.\n   ** Warning ** The resource referenced by LifeCycleCost:UsePriceEscalation= \"U.S. AVG  COMMERCIAL-COAL\" has no energy cost. \n   **   ~~~   ** ... It is likely that the wrong resource is used. The resource should match the meter used in Utility:Tariff.\n   ************* Simulation Error Summary *************\n   ************* There are 1 unused objects in input.\n   ************* Use Output:Diagnostics,DisplayUnusedObjects; to see them.\n   ************* There are 2 unused schedules in input.\n   ************* There are 2 unused week schedules in input.\n   ************* There are 2 unused day schedules in input.\n   ************* Use Output:Diagnostics,DisplayUnusedSchedules; to see them.\n   ************* EnergyPlus Warmup Error Summary. During Warmup: 0 Warning; 0 Severe Errors.\n   ************* EnergyPlus Sizing Error Summary. During Sizing: 0 Warning; 0 Severe Errors.\n   ************* EnergyPlus Completed Successfully-- 96 Warning; 0 Severe Errors; Elapsed Time=00hr 00min  1.18sec\n",
   "file_paths" : 
   [
      "C:/Users/ylou2/Desktop/resstock-3.1.0/euss_test/run1/generated_files",
      "./files",
      "./weather",
      "../../files",
      "../../weather",
      "./"
   ],
   "hash" : "178642E3",
   "measure_paths" : 
   [
      "C:/Users/ylou2/Desktop/resstock-3.1.0/measures",
      "C:/Users/ylou2/Desktop/resstock-3.1.0/resources/hpxml-measures"
   ],
   "run_options" : null,
   "started_at" : "20240227T003131Z",
   "steps" : 
   [
      {
         "arguments" : 
         {
            "building_id" : "1",
            "sample_weight" : 136569411,
            "simulation_control_run_period_begin_day_of_month" : 1,
            "simulation_control_run_period_begin_month" : 1,
            "simulation_control_run_period_calendar_year" : 2007,
            "simulation_control_run_period_end_day_of_month" : 31,
            "simulation_control_run_period_end_month" : 12,
            "simulation_control_timestep" : 60
         },
         "measure_dir_name" : "BuildExistingModel",
         "result" : 
         {
            "completed_at" : "20240227T003137Z",
            "measure_class_name" : "BuildExistingModel",
            "measure_display_name" : "Build Existing Model",
            "measure_name" : "build_existing_model",
            "measure_taxonomy" : "Whole Building.Space Types",
            "measure_type" : "ModelMeasure",
            "measure_uid" : "dedf59bb-3b88-4f16-8755-2c1ff5519cbf",
            "measure_version_id" : "cdc10298-f1e3-4aa0-ab29-04ea586c12a2",
            "measure_version_modified" : "20230418T151417Z",
            "measure_xml_checksum" : "2C38F48B",
            "started_at" : "20240227T003133Z",
            "stderr" : "",
            "stdout" : "[openstudio.measure.OSRunner] <1> Cannot find current Workflow Step\n[openstudio.measure.OSRunner] <1> Cannot find current Workflow Step\n[openstudio.measure.OSRunner] <1> Cannot find current Workflow Step\n",
            "step_errors" : [],
            "step_files" : [],
            "step_info" : 
            [
               "Assigning option 'CR04' for parameter 'Location Region'.",
               "Assigning option '2000s' for parameter 'Vintage'.",
               "Assigning option '2000-09' for parameter 'Vintage ACS'.",
               "Assigning option 'Electricity' for parameter 'Heating Fuel'.",
               "Assigning option 'Medium' for parameter 'Usage Level'.",
               "Assigning option 'None' for parameter 'Geometry Attic Type'.",
               "Assigning option 'Multi-Family with 5+ Units' for parameter 'Geometry Building Type RECS'.",
               "Assigning option '50 or more Unit' for parameter 'Geometry Building Type ACS'.",
               "Assigning option 'Multifamily with 5+ units, 4-7 stories' for parameter 'Geometry Building Type Height'.",
               "Assigning option 'None' for parameter 'Geometry Building Horizontal Location SFA'.",
               "Assigning option 'Middle' for parameter 'Geometry Building Horizontal Location MF'.",
               "Assigning option 'Middle' for parameter 'Geometry Building Level MF'.",
               "Assigning option '67' for parameter 'Geometry Building Number Units MF'.",
               "Assigning option 'None' for parameter 'Geometry Building Number Units SFA'.",
               "Assigning option 'Slab' for parameter 'Geometry Foundation Type'.",
               "Assigning option 'Brick, Medium/Dark' for parameter 'Geometry Wall Exterior Finish'.",
               "Assigning option 'Wood Frame' for parameter 'Geometry Wall Type'.",
               "Assigning option '4' for parameter 'Geometry Stories'.",
               "Assigning option '4+' for parameter 'Geometry Stories Low Rise'.",
               "Assigning option '<8' for parameter 'Geometry Story Bin'.",
               "Assigning option 'None' for parameter 'Geometry Garage'.",
               "Assigning option '0-1499' for parameter 'Geometry Floor Area Bin'.",
               "Assigning option '1000-1499' for parameter 'Geometry Floor Area'.",
               "Assigning option '2' for parameter 'Bedrooms'.",
               "Assigning option 'Double-Loaded Interior' for parameter 'Corridor'.",
               "Assigning option 'Occupied' for parameter 'Vacancy Status'.",
               "Assigning option 'Renter' for parameter 'Tenure'.",
               "Assigning option '2' for parameter 'Occupants'.",
               "Assigning option '200000+' for parameter 'Income'.",
               "Assigning option '140000+' for parameter 'Income RECS2015'.",
               "Assigning option '150000+' for parameter 'Income RECS2020'.",
               "Assigning option '400%+' for parameter 'Federal Poverty Level'.",
               "Assigning option '150%+' for parameter 'Area Median Income'.",
               "Assigning option 'South' for parameter 'Orientation'.",
               "Assigning option '2 ft' for parameter 'Eaves'.",
               "Assigning option '20 ft^2' for parameter 'Door Area'.",
               "Assigning option 'F30 B30 L30 R30' for parameter 'Window Areas'.",
               "Assigning option 'None' for parameter 'Overhangs'.",
               "Assigning option '27' for parameter 'Neighbors'.",
               "Assigning option 'None' for parameter 'Insulation Ceiling'.",
               "Assigning option 'Finished, R-30' for parameter 'Insulation Roof'.",
               "Assigning option 'None' for parameter 'Radiant Barrier'.",
               "Assigning option 'Asphalt Shingles, Medium' for parameter 'Roof Material'.",
               "Assigning option '2ft R10 Perimeter, Vertical' for parameter 'Insulation Slab'.",
               "Assigning option 'None' for parameter 'Insulation Floor'.",
               "Assigning option 'None' for parameter 'Insulation Foundation Wall'.",
               "Assigning option 'None' for parameter 'Insulation Rim Joist'.",
               "Assigning option 'Wood Stud, R-11' for parameter 'Insulation Wall'.",
               "Assigning option 'Summer = 0.7, Winter = 0.85' for parameter 'Interior Shading'.",
               "Assigning option 'Double, Clear, Metal, Air' for parameter 'Windows'.",
               "Assigning option 'Fiberglass' for parameter 'Doors'.",
               "Assigning option 'Yes' for parameter 'Water Heater In Unit'.",
               "Assigning option 'Electricity' for parameter 'Water Heater Fuel'.",
               "Assigning option 'Electric Standard' for parameter 'Water Heater Efficiency'.",
               "Assigning option '100% Usage' for parameter 'Hot Water Fixtures'.",
               "Assigning option 'Uninsulated' for parameter 'Hot Water Distribution'.",
               "Assigning option 'None' for parameter 'Solar Hot Water'.",
               "Assigning option 'No' for parameter 'HVAC Has Zonal Electric Heating'.",
               "Assigning option 'None' for parameter 'HVAC Has Shared System'.",
               "Assigning option 'None' for parameter 'HVAC Shared Efficiencies'.",
               "Assigning option 'Ducted Heat Pump' for parameter 'HVAC Heating Type'.",
               "Assigning option 'Electricity ASHP' for parameter 'HVAC Heating Type And Fuel'.",
               "Assigning option 'ASHP, SEER 13, 7.7 HSPF' for parameter 'HVAC Heating Efficiency'.",
               "Assigning option 'None' for parameter 'HVAC Secondary Heating Type And Fuel'.",
               "Assigning option 'None' for parameter 'HVAC Secondary Heating Efficiency'.",
               "Assigning option 'Heat Pump' for parameter 'HVAC Cooling Type'.",
               "Assigning option 'Heat Pump' for parameter 'HVAC Cooling Efficiency'.",
               "Assigning option '100% Conditioned' for parameter 'HVAC Cooling Partial Space Conditioning'.",
               "Assigning option 'No' for parameter 'HVAC System Is Faulted'.",
               "Assigning option 'None' for parameter 'HVAC System Single Speed AC Airflow'.",
               "Assigning option 'None' for parameter 'HVAC System Single Speed ASHP Airflow'.",
               "Assigning option 'None' for parameter 'HVAC System Single Speed AC Charge'.",
               "Assigning option 'None' for parameter 'HVAC System Single Speed ASHP Charge'.",
               "Assigning option '70F' for parameter 'Heating Setpoint'.",
               "Assigning option '72F' for parameter 'Cooling Setpoint'.",
               "Assigning option 'No' for parameter 'Heating Setpoint Has Offset'.",
               "Assigning option 'No' for parameter 'Cooling Setpoint Has Offset'.",
               "Assigning option '0F' for parameter 'Heating Setpoint Offset Magnitude'.",
               "Assigning option '0F' for parameter 'Cooling Setpoint Offset Magnitude'.",
               "Assigning option 'None' for parameter 'Heating Setpoint Offset Period'.",
               "Assigning option 'None' for parameter 'Cooling Setpoint Offset Period'.",
               "Assigning option 'Standard Efficiency' for parameter 'Ceiling Fan'.",
               "Assigning option 'None' for parameter 'Dehumidifier'.",
               "Assigning option 'EF 17.6, 100% Usage' for parameter 'Refrigerator'.",
               "Assigning option 'Electric, 100% Usage' for parameter 'Cooking Range'.",
               "Assigning option 'None' for parameter 'Dishwasher'.",
               "Assigning option 'None' for parameter 'Clothes Washer Presence'.",
               "Assigning option 'None' for parameter 'Clothes Washer'.",
               "Assigning option 'None' for parameter 'Clothes Dryer'.",
               "Assigning option '100% Incandescent' for parameter 'Lighting'.",
               "Assigning option '100% Usage' for parameter 'Lighting Interior Use'.",
               "Assigning option '100% Usage' for parameter 'Lighting Other Use'.",
               "Assigning option 'No Exterior Use' for parameter 'Holiday Lighting'.",
               "Assigning option '89%' for parameter 'Plug Loads'.",
               "Assigning option '100%' for parameter 'Plug Load Diversity'.",
               "Assigning option 'None' for parameter 'Electric Vehicle'.",
               "Assigning option 'None' for parameter 'Misc Extra Refrigerator'.",
               "Assigning option 'None' for parameter 'Misc Freezer'.",
               "Assigning option 'None' for parameter 'Misc Gas Fireplace'.",
               "Assigning option 'None' for parameter 'Misc Gas Grill'.",
               "Assigning option 'None' for parameter 'Misc Gas Lighting'.",
               "Assigning option 'None' for parameter 'Misc Hot Tub Spa'.",
               "Assigning option 'None' for parameter 'Misc Pool'.",
               "Assigning option 'None' for parameter 'Misc Pool Heater'.",
               "Assigning option 'None' for parameter 'Misc Pool Pump'.",
               "Assigning option 'None' for parameter 'Misc Well Pump'.",
               "Assigning option 'Yes' for parameter 'HVAC Has Ducts'.",
               "Assigning option '20% Leakage, R-8' for parameter 'Ducts'.",
               "Assigning option '15 ACH50' for parameter 'Infiltration'.",
               "Assigning option 'Cooling Season, 7 days/wk' for parameter 'Natural Ventilation'.",
               "Assigning option 'None' for parameter 'Mechanical Ventilation'.",
               "Assigning option 'Hour23' for parameter 'Bathroom Spot Vent Hour'.",
               "Assigning option 'Hour17' for parameter 'Range Spot Vent Hour'.",
               "Assigning option 'No' for parameter 'Has PV'.",
               "Assigning option 'None' for parameter 'PV System Size'.",
               "Assigning option 'None' for parameter 'PV Orientation'.",
               "Assigning option 'None' for parameter 'Battery'.",
               "Assigning option 'CBSA Chicago-Naperville-Elgin, IL-IN-WI' for parameter 'AHS Region'.",
               "Assigning option '5A' for parameter 'ASHRAE IECC Climate Zone 2004'.",
               "Assigning option '5A' for parameter 'ASHRAE IECC Climate Zone 2004 - 2A Split'.",
               "Assigning option 'IL' for parameter 'State'.",
               "Assigning option 'East North Central' for parameter 'Census Division'.",
               "Assigning option 'East North Central' for parameter 'Census Division RECS'.",
               "Assigning option 'None' for parameter 'CEC Climate Zone'.",
               "Assigning option 'Midwest' for parameter 'Census Region'.",
               "Assigning option 'PJM' for parameter 'ISO RTO Region'.",
               "Assigning option 'Cold' for parameter 'Building America Climate Zone'.",
               "Assigning option 'In metro area, principal city' for parameter 'PUMA Metro Status'.",
               "Assigning option 'IL, Cook County' for parameter 'County'.",
               "Assigning option 'IL, 03525' for parameter 'PUMA'.",
               "Assigning option '80' for parameter 'REEDS Balancing Area'.",
               "Assigning option 'RFCWc' for parameter 'Generation And Emissions Assessment Region'.",
               "Assigning option 'G1700310, G17003525' for parameter 'County and PUMA'.",
               "Assigning option 'IL, Chicago' for parameter 'City'.",
               "Assigning option 'No' for parameter 'AIANNH Area'.",
               "Assigning option 'No' for parameter 'Household Has Tribal Persons'."
            ],
            "step_result" : "Success",
            "step_values" : 
            [
               {
                  "name" : "building_id",
                  "value" : 1
               },
               {
                  "name" : "sample_weight",
                  "value" : 136569411.0
               },
               {
                  "name" : "simulation_control_timestep",
                  "value" : 60
               },
               {
                  "name" : "simulation_control_run_period_begin_month",
                  "value" : 1
               },
               {
                  "name" : "simulation_control_run_period_begin_day_of_month",
                  "value" : 1
               },
               {
                  "name" : "simulation_control_run_period_end_month",
                  "value" : 12
               },
               {
                  "name" : "simulation_control_run_period_end_day_of_month",
                  "value" : 31
               },
               {
                  "name" : "simulation_control_run_period_calendar_year",
                  "value" : 2007
               },
               {
                  "name" : "location_region",
                  "value" : "CR04"
               },
               {
                  "name" : "vintage",
                  "value" : "2000s"
               },
               {
                  "name" : "vintage_acs",
                  "value" : "2000-09"
               },
               {
                  "name" : "heating_fuel",
                  "value" : "Electricity"
               },
               {
                  "name" : "usage_level",
                  "value" : "Medium"
               },
               {
                  "name" : "geometry_attic_type",
                  "value" : "None"
               },
               {
                  "name" : "geometry_building_type_recs",
                  "value" : "Multi-Family with 5+ Units"
               },
               {
                  "name" : "geometry_building_type_acs",
                  "value" : "50 or more Unit"
               },
               {
                  "name" : "geometry_building_type_height",
                  "value" : "Multifamily with 5+ units, 4-7 stories"
               },
               {
                  "name" : "geometry_building_horizontal_location_sfa",
                  "value" : "None"
               },
               {
                  "name" : "geometry_building_horizontal_location_mf",
                  "value" : "Middle"
               },
               {
                  "name" : "geometry_building_level_mf",
                  "value" : "Middle"
               },
               {
                  "name" : "geometry_building_number_units_mf",
                  "value" : "67"
               },
               {
                  "name" : "geometry_building_number_units_sfa",
                  "value" : "None"
               },
               {
                  "name" : "geometry_foundation_type",
                  "value" : "Slab"
               },
               {
                  "name" : "geometry_wall_exterior_finish",
                  "value" : "Brick, Medium/Dark"
               },
               {
                  "name" : "geometry_wall_type",
                  "value" : "Wood Frame"
               },
               {
                  "name" : "geometry_stories",
                  "value" : "4"
               },
               {
                  "name" : "geometry_stories_low_rise",
                  "value" : "4+"
               },
               {
                  "name" : "geometry_story_bin",
                  "value" : "<8"
               },
               {
                  "name" : "geometry_garage",
                  "value" : "None"
               },
               {
                  "name" : "geometry_floor_area_bin",
                  "value" : "0-1499"
               },
               {
                  "name" : "geometry_floor_area",
                  "value" : "1000-1499"
               },
               {
                  "name" : "bedrooms",
                  "value" : "2"
               },
               {
                  "name" : "corridor",
                  "value" : "Double-Loaded Interior"
               },
               {
                  "name" : "vacancy_status",
                  "value" : "Occupied"
               },
               {
                  "name" : "tenure",
                  "value" : "Renter"
               },
               {
                  "name" : "occupants",
                  "value" : "2"
               },
               {
                  "name" : "income",
                  "value" : "200000+"
               },
               {
                  "name" : "income_recs_2015",
                  "value" : "140000+"
               },
               {
                  "name" : "income_recs_2020",
                  "value" : "150000+"
               },
               {
                  "name" : "federal_poverty_level",
                  "value" : "400%+"
               },
               {
                  "name" : "area_median_income",
                  "value" : "150%+"
               },
               {
                  "name" : "orientation",
                  "value" : "South"
               },
               {
                  "name" : "eaves",
                  "value" : "2 ft"
               },
               {
                  "name" : "door_area",
                  "value" : "20 ft^2"
               },
               {
                  "name" : "window_areas",
                  "value" : "F30 B30 L30 R30"
               },
               {
                  "name" : "overhangs",
                  "value" : "None"
               },
               {
                  "name" : "neighbors",
                  "value" : "27"
               },
               {
                  "name" : "insulation_ceiling",
                  "value" : "None"
               },
               {
                  "name" : "insulation_roof",
                  "value" : "Finished, R-30"
               },
               {
                  "name" : "radiant_barrier",
                  "value" : "None"
               },
               {
                  "name" : "roof_material",
                  "value" : "Asphalt Shingles, Medium"
               },
               {
                  "name" : "insulation_slab",
                  "value" : "2ft R10 Perimeter, Vertical"
               },
               {
                  "name" : "insulation_floor",
                  "value" : "None"
               },
               {
                  "name" : "insulation_foundation_wall",
                  "value" : "None"
               },
               {
                  "name" : "insulation_rim_joist",
                  "value" : "None"
               },
               {
                  "name" : "insulation_wall",
                  "value" : "Wood Stud, R-11"
               },
               {
                  "name" : "interior_shading",
                  "value" : "Summer = 0.7, Winter = 0.85"
               },
               {
                  "name" : "windows",
                  "value" : "Double, Clear, Metal, Air"
               },
               {
                  "name" : "doors",
                  "value" : "Fiberglass"
               },
               {
                  "name" : "water_heater_in_unit",
                  "value" : "Yes"
               },
               {
                  "name" : "water_heater_fuel",
                  "value" : "Electricity"
               },
               {
                  "name" : "water_heater_efficiency",
                  "value" : "Electric Standard"
               },
               {
                  "name" : "hot_water_fixtures",
                  "value" : "100% Usage"
               },
               {
                  "name" : "hot_water_distribution",
                  "value" : "Uninsulated"
               },
               {
                  "name" : "solar_hot_water",
                  "value" : "None"
               },
               {
                  "name" : "hvac_has_zonal_electric_heating",
                  "value" : "No"
               },
               {
                  "name" : "hvac_has_shared_system",
                  "value" : "None"
               },
               {
                  "name" : "hvac_shared_efficiencies",
                  "value" : "None"
               },
               {
                  "name" : "hvac_heating_type",
                  "value" : "Ducted Heat Pump"
               },
               {
                  "name" : "hvac_heating_type_and_fuel",
                  "value" : "Electricity ASHP"
               },
               {
                  "name" : "hvac_heating_efficiency",
                  "value" : "ASHP, SEER 13, 7.7 HSPF"
               },
               {
                  "name" : "hvac_secondary_heating_type_and_fuel",
                  "value" : "None"
               },
               {
                  "name" : "hvac_secondary_heating_efficiency",
                  "value" : "None"
               },
               {
                  "name" : "hvac_cooling_type",
                  "value" : "Heat Pump"
               },
               {
                  "name" : "hvac_cooling_efficiency",
                  "value" : "Heat Pump"
               },
               {
                  "name" : "hvac_cooling_partial_space_conditioning",
                  "value" : "100% Conditioned"
               },
               {
                  "name" : "hvac_system_is_faulted",
                  "value" : "No"
               },
               {
                  "name" : "hvac_system_single_speed_ac_airflow",
                  "value" : "None"
               },
               {
                  "name" : "hvac_system_single_speed_ashp_airflow",
                  "value" : "None"
               },
               {
                  "name" : "hvac_system_single_speed_ac_charge",
                  "value" : "None"
               },
               {
                  "name" : "hvac_system_single_speed_ashp_charge",
                  "value" : "None"
               },
               {
                  "name" : "heating_setpoint",
                  "value" : "70F"
               },
               {
                  "name" : "cooling_setpoint",
                  "value" : "72F"
               },
               {
                  "name" : "heating_setpoint_has_offset",
                  "value" : "No"
               },
               {
                  "name" : "cooling_setpoint_has_offset",
                  "value" : "No"
               },
               {
                  "name" : "heating_setpoint_offset_magnitude",
                  "value" : "0F"
               },
               {
                  "name" : "cooling_setpoint_offset_magnitude",
                  "value" : "0F"
               },
               {
                  "name" : "heating_setpoint_offset_period",
                  "value" : "None"
               },
               {
                  "name" : "cooling_setpoint_offset_period",
                  "value" : "None"
               },
               {
                  "name" : "ceiling_fan",
                  "value" : "Standard Efficiency"
               },
               {
                  "name" : "dehumidifier",
                  "value" : "None"
               },
               {
                  "name" : "refrigerator",
                  "value" : "EF 17.6, 100% Usage"
               },
               {
                  "name" : "cooking_range",
                  "value" : "Electric, 100% Usage"
               },
               {
                  "name" : "dishwasher",
                  "value" : "None"
               },
               {
                  "name" : "clothes_washer_presence",
                  "value" : "None"
               },
               {
                  "name" : "clothes_washer",
                  "value" : "None"
               },
               {
                  "name" : "clothes_dryer",
                  "value" : "None"
               },
               {
                  "name" : "lighting",
                  "value" : "100% Incandescent"
               },
               {
                  "name" : "lighting_interior_use",
                  "value" : "100% Usage"
               },
               {
                  "name" : "lighting_other_use",
                  "value" : "100% Usage"
               },
               {
                  "name" : "holiday_lighting",
                  "value" : "No Exterior Use"
               },
               {
                  "name" : "plug_loads",
                  "value" : "89%"
               },
               {
                  "name" : "plug_load_diversity",
                  "value" : "100%"
               },
               {
                  "name" : "electric_vehicle",
                  "value" : "None"
               },
               {
                  "name" : "misc_extra_refrigerator",
                  "value" : "None"
               },
               {
                  "name" : "misc_freezer",
                  "value" : "None"
               },
               {
                  "name" : "misc_gas_fireplace",
                  "value" : "None"
               },
               {
                  "name" : "misc_gas_grill",
                  "value" : "None"
               },
               {
                  "name" : "misc_gas_lighting",
                  "value" : "None"
               },
               {
                  "name" : "misc_hot_tub_spa",
                  "value" : "None"
               },
               {
                  "name" : "misc_pool",
                  "value" : "None"
               },
               {
                  "name" : "misc_pool_heater",
                  "value" : "None"
               },
               {
                  "name" : "misc_pool_pump",
                  "value" : "None"
               },
               {
                  "name" : "misc_well_pump",
                  "value" : "None"
               },
               {
                  "name" : "hvac_has_ducts",
                  "value" : "Yes"
               },
               {
                  "name" : "ducts",
                  "value" : "20% Leakage, R-8"
               },
               {
                  "name" : "infiltration",
                  "value" : "15 ACH50"
               },
               {
                  "name" : "natural_ventilation",
                  "value" : "Cooling Season, 7 days/wk"
               },
               {
                  "name" : "mechanical_ventilation",
                  "value" : "None"
               },
               {
                  "name" : "bathroom_spot_vent_hour",
                  "value" : "Hour23"
               },
               {
                  "name" : "range_spot_vent_hour",
                  "value" : "Hour17"
               },
               {
                  "name" : "has_pv",
                  "value" : "No"
               },
               {
                  "name" : "pv_system_size",
                  "value" : "None"
               },
               {
                  "name" : "pv_orientation",
                  "value" : "None"
               },
               {
                  "name" : "battery",
                  "value" : "None"
               },
               {
                  "name" : "ahs_region",
                  "value" : "CBSA Chicago-Naperville-Elgin, IL-IN-WI"
               },
               {
                  "name" : "ashrae_iecc_climate_zone_2004",
                  "value" : "5A"
               },
               {
                  "name" : "ashrae_iecc_climate_zone_2004_2_a_split",
                  "value" : "5A"
               },
               {
                  "name" : "state",
                  "value" : "IL"
               },
               {
                  "name" : "census_division",
                  "value" : "East North Central"
               },
               {
                  "name" : "census_division_recs",
                  "value" : "East North Central"
               },
               {
                  "name" : "cec_climate_zone",
                  "value" : "None"
               },
               {
                  "name" : "census_region",
                  "value" : "Midwest"
               },
               {
                  "name" : "iso_rto_region",
                  "value" : "PJM"
               },
               {
                  "name" : "building_america_climate_zone",
                  "value" : "Cold"
               },
               {
                  "name" : "puma_metro_status",
                  "value" : "In metro area, principal city"
               },
               {
                  "name" : "county",
                  "value" : "IL, Cook County"
               },
               {
                  "name" : "puma",
                  "value" : "IL, 03525"
               },
               {
                  "name" : "reeds_balancing_area",
                  "value" : "80"
               },
               {
                  "name" : "generation_and_emissions_assessment_region",
                  "value" : "RFCWc"
               },
               {
                  "name" : "county_and_puma",
                  "value" : "G1700310, G17003525"
               },
               {
                  "name" : "city",
                  "value" : "IL, Chicago"
               },
               {
                  "name" : "aiannh_area",
                  "value" : "No"
               },
               {
                  "name" : "household_has_tribal_persons",
                  "value" : "No"
               },
               {
                  "name" : "weather_file_city",
                  "value" : "Chicago Midway Ap"
               },
               {
                  "name" : "weather_file_latitude",
                  "value" : 41.780000000000001
               },
               {
                  "name" : "weather_file_longitude",
                  "value" : -87.75
               }
            ],
            "step_warnings" : []
         }
      },
      {
         "arguments" : 
         {
            "add_component_loads" : false,
            "debug" : false,
            "hpxml_path" : "C:/Users/ylou2/Desktop/resstock-3.1.0/euss_test/run1/run/home.xml",
            "output_dir" : "C:/Users/ylou2/Desktop/resstock-3.1.0/euss_test/run1/run",
            "skip_validation" : true
         },
         "measure_dir_name" : "HPXMLtoOpenStudio",
         "result" : 
         {
            "completed_at" : "20240227T003140Z",
            "measure_class_name" : "HPXMLtoOpenStudio",
            "measure_display_name" : "HPXML to OpenStudio Translator",
            "measure_name" : "hpxm_lto_openstudio",
            "measure_taxonomy" : "Whole Building.Space Types",
            "measure_type" : "ModelMeasure",
            "measure_uid" : "b1543b30-9465-45ff-ba04-1d1f85e763bc",
            "measure_version_id" : "59be9be7-88f6-4998-8ad8-f7f64685c765",
            "measure_version_modified" : "20230522T164611Z",
            "measure_xml_checksum" : "D8922A73",
            "started_at" : "20240227T003139Z",
            "stderr" : "",
            "stdout" : "",
            "step_errors" : [],
            "step_files" : [],
            "step_info" : [],
            "step_result" : "Success",
            "step_values" : 
            [
               {
                  "name" : "hpxml_path",
                  "value" : "C:/Users/ylou2/Desktop/resstock-3.1.0/euss_test/run1/run/home.xml"
               },
               {
                  "name" : "output_dir",
                  "value" : "C:/Users/ylou2/Desktop/resstock-3.1.0/euss_test/run1/run"
               },
               {
                  "name" : "debug",
                  "value" : false
               },
               {
                  "name" : "add_component_loads",
                  "value" : false
               },
               {
                  "name" : "skip_validation",
                  "value" : true
               }
            ],
            "step_warnings" : 
            [
               "The model contains existing objects and is being reset.",
               "Both 'occupants' schedule file and weekday fractions provided; the latter will be ignored.",
               "Both 'occupants' schedule file and weekend fractions provided; the latter will be ignored.",
               "Both 'occupants' schedule file and monthly multipliers provided; the latter will be ignored.",
               "Both 'ceiling_fan' schedule file and weekday fractions provided; the latter will be ignored.",
               "Both 'ceiling_fan' schedule file and weekend fractions provided; the latter will be ignored.",
               "Both 'ceiling_fan' schedule file and monthly multipliers provided; the latter will be ignored.",
               "Both 'cooking_range' schedule file and weekday fractions provided; the latter will be ignored.",
               "Both 'cooking_range' schedule file and weekend fractions provided; the latter will be ignored.",
               "Both 'cooking_range' schedule file and monthly multipliers provided; the latter will be ignored.",
               "Both 'hot_water_fixtures' schedule file and weekday fractions provided; the latter will be ignored.",
               "Both 'hot_water_fixtures' schedule file and weekend fractions provided; the latter will be ignored.",
               "Both 'hot_water_fixtures' schedule file and monthly multipliers provided; the latter will be ignored.",
               "Both 'plug_loads_other' schedule file and weekday fractions provided; the latter will be ignored.",
               "Both 'plug_loads_other' schedule file and weekend fractions provided; the latter will be ignored.",
               "Both 'plug_loads_other' schedule file and monthly multipliers provided; the latter will be ignored."
            ]
         }
      },
      {
         "arguments" : 
         {
            "add_timeseries_dst_column" : true,
            "add_timeseries_utc_column" : true,
            "include_annual_component_loads" : true,
            "include_annual_emission_end_uses" : true,
            "include_annual_emission_fuels" : true,
            "include_annual_emissions" : true,
            "include_annual_end_use_consumptions" : true,
            "include_annual_fuel_consumptions" : true,
            "include_annual_hot_water_uses" : true,
            "include_annual_hvac_summary" : true,
            "include_annual_peak_fuels" : true,
            "include_annual_peak_loads" : true,
            "include_annual_system_use_consumptions" : false,
            "include_annual_total_consumptions" : true,
            "include_annual_total_loads" : true,
            "include_annual_unmet_hours" : true,
            "include_timeseries_airflows" : true,
            "include_timeseries_component_loads" : true,
            "include_timeseries_emission_end_uses" : true,
            "include_timeseries_emission_fuels" : true,
            "include_timeseries_emissions" : true,
            "include_timeseries_end_use_consumptions" : true,
            "include_timeseries_fuel_consumptions" : true,
            "include_timeseries_hot_water_uses" : true,
            "include_timeseries_system_use_consumptions" : false,
            "include_timeseries_total_consumptions" : true,
            "include_timeseries_total_loads" : true,
            "include_timeseries_unmet_hours" : true,
            "include_timeseries_weather" : true,
            "include_timeseries_zone_temperatures" : true,
            "output_format" : "csv",
            "timeseries_frequency" : "hourly",
            "timeseries_num_decimal_places" : 3,
            "timeseries_timestamp_convention" : "end"
         },
         "measure_dir_name" : "ReportSimulationOutput",
         "result" : 
         {
            "completed_at" : "20240227T003215Z",
            "measure_class_name" : "ReportSimulationOutput",
            "measure_display_name" : "HPXML Simulation Output Report",
            "measure_name" : "report_simulation_output",
            "measure_taxonomy" : "Reporting.QAQC",
            "measure_type" : "ReportingMeasure",
            "measure_uid" : "df9d170c-c21a-4130-866d-0d46b06073fd",
            "measure_version_id" : "5362758c-ff55-4684-b0aa-16341d1ada75",
            "measure_version_modified" : "20230502T172559Z",
            "measure_xml_checksum" : "9BF1E6AC",
            "started_at" : "20240227T003214Z",
            "stderr" : "",
            "stdout" : "",
            "step_errors" : [],
            "step_files" : [],
            "step_info" : 
            [
               "Wrote annual output results to C:/Users/ylou2/Desktop/resstock-3.1.0/euss_test/run1/run/results_annual.csv.",
               "Registering 32.521 for energy_use_total_m_btu.",
               "Registering 32.521 for energy_use_net_m_btu.",
               "Registering 32.521 for fuel_use_electricity_total_m_btu.",
               "Registering 32.521 for fuel_use_electricity_net_m_btu.",
               "Registering 0.0 for fuel_use_natural_gas_total_m_btu.",
               "Registering 0.0 for fuel_use_fuel_oil_total_m_btu.",
               "Registering 0.0 for fuel_use_propane_total_m_btu.",
               "Registering 0.0 for fuel_use_wood_cord_total_m_btu.",
               "Registering 0.0 for fuel_use_wood_pellets_total_m_btu.",
               "Registering 0.0 for fuel_use_coal_total_m_btu.",
               "Registering 4.624 for end_use_electricity_heating_m_btu.",
               "Registering 0.39 for end_use_electricity_heating_fans_pumps_m_btu.",
               "Registering 3.045 for end_use_electricity_heating_heat_pump_backup_m_btu.",
               "Registering 0.091 for end_use_electricity_heating_heat_pump_backup_fans_pumps_m_btu.",
               "Registering 3.05 for end_use_electricity_cooling_m_btu.",
               "Registering 0.761 for end_use_electricity_cooling_fans_pumps_m_btu.",
               "Registering 6.883 for end_use_electricity_hot_water_m_btu.",
               "Registering 0.0 for end_use_electricity_hot_water_recirc_pump_m_btu.",
               "Registering 0.0 for end_use_electricity_hot_water_solar_thermal_pump_m_btu.",
               "Registering 4.999 for end_use_electricity_lighting_interior_m_btu.",
               "Registering 0.0 for end_use_electricity_lighting_garage_m_btu.",
               "Registering 0.535 for end_use_electricity_lighting_exterior_m_btu.",
               "Registering 0.056 for end_use_electricity_mech_vent_m_btu.",
               "Registering 0.0 for end_use_electricity_mech_vent_preheating_m_btu.",
               "Registering 0.0 for end_use_electricity_mech_vent_precooling_m_btu.",
               "Registering 0.0 for end_use_electricity_whole_house_fan_m_btu.",
               "Registering 1.482 for end_use_electricity_refrigerator_m_btu.",
               "Registering 0.0 for end_use_electricity_freezer_m_btu.",
               "Registering 0.0 for end_use_electricity_dehumidifier_m_btu.",
               "Registering 0.0 for end_use_electricity_dishwasher_m_btu.",
               "Registering 0.0 for end_use_electricity_clothes_washer_m_btu.",
               "Registering 0.0 for end_use_electricity_clothes_dryer_m_btu.",
               "Registering 1.329 for end_use_electricity_range_oven_m_btu.",
               "Registering 0.186 for end_use_electricity_ceiling_fan_m_btu.",
               "Registering 0.0 for end_use_electricity_television_m_btu.",
               "Registering 5.089 for end_use_electricity_plug_loads_m_btu.",
               "Registering 0.0 for end_use_electricity_electric_vehicle_charging_m_btu.",
               "Registering 0.0 for end_use_electricity_well_pump_m_btu.",
               "Registering 0.0 for end_use_electricity_pool_heater_m_btu.",
               "Registering 0.0 for end_use_electricity_pool_pump_m_btu.",
               "Registering 0.0 for end_use_electricity_hot_tub_heater_m_btu.",
               "Registering 0.0 for end_use_electricity_hot_tub_pump_m_btu.",
               "Registering 0.0 for end_use_electricity_pv_m_btu.",
               "Registering 0.0 for end_use_electricity_generator_m_btu.",
               "Registering 0.0 for end_use_electricity_battery_m_btu.",
               "Registering 0.0 for end_use_natural_gas_heating_m_btu.",
               "Registering 0.0 for end_use_natural_gas_heating_heat_pump_backup_m_btu.",
               "Registering 0.0 for end_use_natural_gas_hot_water_m_btu.",
               "Registering 0.0 for end_use_natural_gas_clothes_dryer_m_btu.",
               "Registering 0.0 for end_use_natural_gas_range_oven_m_btu.",
               "Registering 0.0 for end_use_natural_gas_mech_vent_preheating_m_btu.",
               "Registering 0.0 for end_use_natural_gas_pool_heater_m_btu.",
               "Registering 0.0 for end_use_natural_gas_hot_tub_heater_m_btu.",
               "Registering 0.0 for end_use_natural_gas_grill_m_btu.",
               "Registering 0.0 for end_use_natural_gas_lighting_m_btu.",
               "Registering 0.0 for end_use_natural_gas_fireplace_m_btu.",
               "Registering 0.0 for end_use_natural_gas_generator_m_btu.",
               "Registering 0.0 for end_use_fuel_oil_heating_m_btu.",
               "Registering 0.0 for end_use_fuel_oil_heating_heat_pump_backup_m_btu.",
               "Registering 0.0 for end_use_fuel_oil_hot_water_m_btu.",
               "Registering 0.0 for end_use_fuel_oil_clothes_dryer_m_btu.",
               "Registering 0.0 for end_use_fuel_oil_range_oven_m_btu.",
               "Registering 0.0 for end_use_fuel_oil_mech_vent_preheating_m_btu.",
               "Registering 0.0 for end_use_fuel_oil_grill_m_btu.",
               "Registering 0.0 for end_use_fuel_oil_lighting_m_btu.",
               "Registering 0.0 for end_use_fuel_oil_fireplace_m_btu.",
               "Registering 0.0 for end_use_fuel_oil_generator_m_btu.",
               "Registering 0.0 for end_use_propane_heating_m_btu.",
               "Registering 0.0 for end_use_propane_heating_heat_pump_backup_m_btu.",
               "Registering 0.0 for end_use_propane_hot_water_m_btu.",
               "Registering 0.0 for end_use_propane_clothes_dryer_m_btu.",
               "Registering 0.0 for end_use_propane_range_oven_m_btu.",
               "Registering 0.0 for end_use_propane_mech_vent_preheating_m_btu.",
               "Registering 0.0 for end_use_propane_grill_m_btu.",
               "Registering 0.0 for end_use_propane_lighting_m_btu.",
               "Registering 0.0 for end_use_propane_fireplace_m_btu.",
               "Registering 0.0 for end_use_propane_generator_m_btu.",
               "Registering 0.0 for end_use_wood_cord_heating_m_btu.",
               "Registering 0.0 for end_use_wood_cord_heating_heat_pump_backup_m_btu.",
               "Registering 0.0 for end_use_wood_cord_hot_water_m_btu.",
               "Registering 0.0 for end_use_wood_cord_clothes_dryer_m_btu.",
               "Registering 0.0 for end_use_wood_cord_range_oven_m_btu.",
               "Registering 0.0 for end_use_wood_cord_mech_vent_preheating_m_btu.",
               "Registering 0.0 for end_use_wood_cord_grill_m_btu.",
               "Registering 0.0 for end_use_wood_cord_lighting_m_btu.",
               "Registering 0.0 for end_use_wood_cord_fireplace_m_btu.",
               "Registering 0.0 for end_use_wood_cord_generator_m_btu.",
               "Registering 0.0 for end_use_wood_pellets_heating_m_btu.",
               "Registering 0.0 for end_use_wood_pellets_heating_heat_pump_backup_m_btu.",
               "Registering 0.0 for end_use_wood_pellets_hot_water_m_btu.",
               "Registering 0.0 for end_use_wood_pellets_clothes_dryer_m_btu.",
               "Registering 0.0 for end_use_wood_pellets_range_oven_m_btu.",
               "Registering 0.0 for end_use_wood_pellets_mech_vent_preheating_m_btu.",
               "Registering 0.0 for end_use_wood_pellets_grill_m_btu.",
               "Registering 0.0 for end_use_wood_pellets_lighting_m_btu.",
               "Registering 0.0 for end_use_wood_pellets_fireplace_m_btu.",
               "Registering 0.0 for end_use_wood_pellets_generator_m_btu.",
               "Registering 0.0 for end_use_coal_heating_m_btu.",
               "Registering 0.0 for end_use_coal_heating_heat_pump_backup_m_btu.",
               "Registering 0.0 for end_use_coal_hot_water_m_btu.",
               "Registering 0.0 for end_use_coal_clothes_dryer_m_btu.",
               "Registering 0.0 for end_use_coal_range_oven_m_btu.",
               "Registering 0.0 for end_use_coal_mech_vent_preheating_m_btu.",
               "Registering 0.0 for end_use_coal_grill_m_btu.",
               "Registering 0.0 for end_use_coal_lighting_m_btu.",
               "Registering 0.0 for end_use_coal_fireplace_m_btu.",
               "Registering 0.0 for end_use_coal_generator_m_btu.",
               "Registering 12.523 for load_heating_delivered_m_btu.",
               "Registering 3.136 for load_heating_heat_pump_backup_m_btu.",
               "Registering 9.925 for load_cooling_delivered_m_btu.",
               "Registering 5.84 for load_hot_water_delivered_m_btu.",
               "Registering 1.041 for load_hot_water_tank_losses_m_btu.",
               "Registering 0.0 for load_hot_water_desuperheater_m_btu.",
               "Registering 0.0 for load_hot_water_solar_thermal_m_btu.",
               "Registering 1.0 for unmet_hours_heating_hr.",
               "Registering 12.0 for unmet_hours_cooling_hr.",
               "Registering 6514.6 for peak_electricity_winter_total_w.",
               "Registering 3974.3 for peak_electricity_summer_total_w.",
               "Registering 16.699 for peak_load_heating_delivered_k_btu_hr.",
               "Registering 8.112 for peak_load_cooling_delivered_k_btu_hr.",
               "Registering 0.0 for hot_water_clothes_washer_gal.",
               "Registering 0.0 for hot_water_dishwasher_gal.",
               "Registering 7490.1 for hot_water_fixtures_gal.",
               "Registering 2952.2 for hot_water_distribution_waste_gal.",
               "Registering 10627.0 for hvac_capacity_heating_btu_h.",
               "Registering 10627.0 for hvac_capacity_cooling_btu_h.",
               "Registering 16212.0 for hvac_capacity_heat_pump_backup_btu_h.",
               "Registering 4.28 for hvac_design_temperature_heating_f.",
               "Registering 89.6 for hvac_design_temperature_cooling_f.",
               "Registering 16212.0 for hvac_design_load_heating_total_btu_h.",
               "Registering 3873.0 for hvac_design_load_heating_ducts_btu_h.",
               "Registering 3012.0 for hvac_design_load_heating_windows_btu_h.",
               "Registering 0.0 for hvac_design_load_heating_skylights_btu_h.",
               "Registering 0.0 for hvac_design_load_heating_doors_btu_h.",
               "Registering 842.0 for hvac_design_load_heating_walls_btu_h.",
               "Registering 0.0 for hvac_design_load_heating_roofs_btu_h.",
               "Registering 0.0 for hvac_design_load_heating_floors_btu_h.",
               "Registering 0.0 for hvac_design_load_heating_slabs_btu_h.",
               "Registering 0.0 for hvac_design_load_heating_ceilings_btu_h.",
               "Registering 8486.0 for hvac_design_load_heating_infiltration_ventilation_btu_h.",
               "Registering 6543.0 for hvac_design_load_cooling_sensible_total_btu_h.",
               "Registering 1394.0 for hvac_design_load_cooling_sensible_ducts_btu_h.",
               "Registering 995.0 for hvac_design_load_cooling_sensible_windows_btu_h.",
               "Registering 0.0 for hvac_design_load_cooling_sensible_skylights_btu_h.",
               "Registering 0.0 for hvac_design_load_cooling_sensible_doors_btu_h.",
               "Registering 150.0 for hvac_design_load_cooling_sensible_walls_btu_h.",
               "Registering 0.0 for hvac_design_load_cooling_sensible_roofs_btu_h.",
               "Registering 0.0 for hvac_design_load_cooling_sensible_floors_btu_h.",
               "Registering 0.0 for hvac_design_load_cooling_sensible_slabs_btu_h.",
               "Registering 0.0 for hvac_design_load_cooling_sensible_ceilings_btu_h.",
               "Registering 915.0 for hvac_design_load_cooling_sensible_infiltration_ventilation_btu_h.",
               "Registering 3090.0 for hvac_design_load_cooling_sensible_internal_gains_btu_h.",
               "Registering 2326.0 for hvac_design_load_cooling_latent_total_btu_h.",
               "Registering 432.0 for hvac_design_load_cooling_latent_ducts_btu_h.",
               "Registering 1294.0 for hvac_design_load_cooling_latent_infiltration_ventilation_btu_h.",
               "Registering 600.0 for hvac_design_load_cooling_latent_internal_gains_btu_h.",
               "Wrote timeseries output results to C:/Users/ylou2/Desktop/resstock-3.1.0/euss_test/run1/run/results_timeseries.csv."
            ],
            "step_result" : "Success",
            "step_values" : 
            [
               {
                  "name" : "output_format",
                  "value" : "csv"
               },
               {
                  "name" : "include_annual_total_consumptions",
                  "value" : true
               },
               {
                  "name" : "include_annual_fuel_consumptions",
                  "value" : true
               },
               {
                  "name" : "include_annual_end_use_consumptions",
                  "value" : true
               },
               {
                  "name" : "include_annual_system_use_consumptions",
                  "value" : false
               },
               {
                  "name" : "include_annual_emissions",
                  "value" : true
               },
               {
                  "name" : "include_annual_emission_fuels",
                  "value" : true
               },
               {
                  "name" : "include_annual_emission_end_uses",
                  "value" : true
               },
               {
                  "name" : "include_annual_total_loads",
                  "value" : true
               },
               {
                  "name" : "include_annual_unmet_hours",
                  "value" : true
               },
               {
                  "name" : "include_annual_peak_fuels",
                  "value" : true
               },
               {
                  "name" : "include_annual_peak_loads",
                  "value" : true
               },
               {
                  "name" : "include_annual_component_loads",
                  "value" : true
               },
               {
                  "name" : "include_annual_hot_water_uses",
                  "value" : true
               },
               {
                  "name" : "include_annual_hvac_summary",
                  "value" : true
               },
               {
                  "name" : "timeseries_frequency",
                  "value" : "hourly"
               },
               {
                  "name" : "include_timeseries_total_consumptions",
                  "value" : true
               },
               {
                  "name" : "include_timeseries_fuel_consumptions",
                  "value" : true
               },
               {
                  "name" : "include_timeseries_end_use_consumptions",
                  "value" : true
               },
               {
                  "name" : "include_timeseries_system_use_consumptions",
                  "value" : false
               },
               {
                  "name" : "include_timeseries_emissions",
                  "value" : true
               },
               {
                  "name" : "include_timeseries_emission_fuels",
                  "value" : true
               },
               {
                  "name" : "include_timeseries_emission_end_uses",
                  "value" : true
               },
               {
                  "name" : "include_timeseries_hot_water_uses",
                  "value" : true
               },
               {
                  "name" : "include_timeseries_total_loads",
                  "value" : true
               },
               {
                  "name" : "include_timeseries_component_loads",
                  "value" : true
               },
               {
                  "name" : "include_timeseries_unmet_hours",
                  "value" : true
               },
               {
                  "name" : "include_timeseries_zone_temperatures",
                  "value" : true
               },
               {
                  "name" : "include_timeseries_airflows",
                  "value" : true
               },
               {
                  "name" : "include_timeseries_weather",
                  "value" : true
               },
               {
                  "name" : "timeseries_timestamp_convention",
                  "value" : "end"
               },
               {
                  "name" : "timeseries_num_decimal_places",
                  "value" : 3
               },
               {
                  "name" : "add_timeseries_dst_column",
                  "value" : true
               },
               {
                  "name" : "add_timeseries_utc_column",
                  "value" : true
               },
               {
                  "name" : "energy_use_total_m_btu",
                  "value" : 32.521000000000001
               },
               {
                  "name" : "energy_use_net_m_btu",
                  "value" : 32.521000000000001
               },
               {
                  "name" : "fuel_use_electricity_total_m_btu",
                  "value" : 32.521000000000001
               },
               {
                  "name" : "fuel_use_electricity_net_m_btu",
                  "value" : 32.521000000000001
               },
               {
                  "name" : "fuel_use_natural_gas_total_m_btu",
                  "value" : 0.0
               },
               {
                  "name" : "fuel_use_fuel_oil_total_m_btu",
                  "value" : 0.0
               },
               {
                  "name" : "fuel_use_propane_total_m_btu",
                  "value" : 0.0
               },
               {
                  "name" : "fuel_use_wood_cord_total_m_btu",
                  "value" : 0.0
               },
               {
                  "name" : "fuel_use_wood_pellets_total_m_btu",
                  "value" : 0.0
               },
               {
                  "name" : "fuel_use_coal_total_m_btu",
                  "value" : 0.0
               },
               {
                  "name" : "end_use_electricity_heating_m_btu",
                  "value" : 4.6239999999999997
               },
               {
                  "name" : "end_use_electricity_heating_fans_pumps_m_btu",
                  "value" : 0.39000000000000001
               },
               {
                  "name" : "end_use_electricity_heating_heat_pump_backup_m_btu",
                  "value" : 3.0449999999999999
               },
               {
                  "name" : "end_use_electricity_heating_heat_pump_backup_fans_pumps_m_btu",
                  "value" : 0.090999999999999998
               },
               {
                  "name" : "end_use_electricity_cooling_m_btu",
                  "value" : 3.0499999999999998
               },
               {
                  "name" : "end_use_electricity_cooling_fans_pumps_m_btu",
                  "value" : 0.76100000000000001
               },
               {
                  "name" : "end_use_electricity_hot_water_m_btu",
                  "value" : 6.883
               },
               {
                  "name" : "end_use_electricity_hot_water_recirc_pump_m_btu",
                  "value" : 0.0
               },
               {
                  "name" : "end_use_electricity_hot_water_solar_thermal_pump_m_btu",
                  "value" : 0.0
               },
               {
                  "name" : "end_use_electricity_lighting_interior_m_btu",
                  "value" : 4.9989999999999997
               },
               {
                  "name" : "end_use_electricity_lighting_garage_m_btu",
                  "value" : 0.0
               },
               {
                  "name" : "end_use_electricity_lighting_exterior_m_btu",
                  "value" : 0.53500000000000003
               },
               {
                  "name" : "end_use_electricity_mech_vent_m_btu",
                  "value" : 0.056000000000000001
               },
               {
                  "name" : "end_use_electricity_mech_vent_preheating_m_btu",
                  "value" : 0.0
               },
               {
                  "name" : "end_use_electricity_mech_vent_precooling_m_btu",
                  "value" : 0.0
               },
               {
                  "name" : "end_use_electricity_whole_house_fan_m_btu",
                  "value" : 0.0
               },
               {
                  "name" : "end_use_electricity_refrigerator_m_btu",
                  "value" : 1.482
               },
               {
                  "name" : "end_use_electricity_freezer_m_btu",
                  "value" : 0.0
               },
               {
                  "name" : "end_use_electricity_dehumidifier_m_btu",
                  "value" : 0.0
               },
               {
                  "name" : "end_use_electricity_dishwasher_m_btu",
                  "value" : 0.0
               },
               {
                  "name" : "end_use_electricity_clothes_washer_m_btu",
                  "value" : 0.0
               },
               {
                  "name" : "end_use_electricity_clothes_dryer_m_btu",
                  "value" : 0.0
               },
               {
                  "name" : "end_use_electricity_range_oven_m_btu",
                  "value" : 1.329
               },
               {
                  "name" : "end_use_electricity_ceiling_fan_m_btu",
                  "value" : 0.186
               },
               {
                  "name" : "end_use_electricity_television_m_btu",
                  "value" : 0.0
               },
               {
                  "name" : "end_use_electricity_plug_loads_m_btu",
                  "value" : 5.0890000000000004
               },
               {
                  "name" : "end_use_electricity_electric_vehicle_charging_m_btu",
                  "value" : 0.0
               },
               {
                  "name" : "end_use_electricity_well_pump_m_btu",
                  "value" : 0.0
               },
               {
                  "name" : "end_use_electricity_pool_heater_m_btu",
                  "value" : 0.0
               },
               {
                  "name" : "end_use_electricity_pool_pump_m_btu",
                  "value" : 0.0
               },
               {
                  "name" : "end_use_electricity_hot_tub_heater_m_btu",
                  "value" : 0.0
               },
               {
                  "name" : "end_use_electricity_hot_tub_pump_m_btu",
                  "value" : 0.0
               },
               {
                  "name" : "end_use_electricity_pv_m_btu",
                  "value" : 0.0
               },
               {
                  "name" : "end_use_electricity_generator_m_btu",
                  "value" : 0.0
               },
               {
                  "name" : "end_use_electricity_battery_m_btu",
                  "value" : 0.0
               },
               {
                  "name" : "end_use_natural_gas_heating_m_btu",
                  "value" : 0.0
               },
               {
                  "name" : "end_use_natural_gas_heating_heat_pump_backup_m_btu",
                  "value" : 0.0
               },
               {
                  "name" : "end_use_natural_gas_hot_water_m_btu",
                  "value" : 0.0
               },
               {
                  "name" : "end_use_natural_gas_clothes_dryer_m_btu",
                  "value" : 0.0
               },
               {
                  "name" : "end_use_natural_gas_range_oven_m_btu",
                  "value" : 0.0
               },
               {
                  "name" : "end_use_natural_gas_mech_vent_preheating_m_btu",
                  "value" : 0.0
               },
               {
                  "name" : "end_use_natural_gas_pool_heater_m_btu",
                  "value" : 0.0
               },
               {
                  "name" : "end_use_natural_gas_hot_tub_heater_m_btu",
                  "value" : 0.0
               },
               {
                  "name" : "end_use_natural_gas_grill_m_btu",
                  "value" : 0.0
               },
               {
                  "name" : "end_use_natural_gas_lighting_m_btu",
                  "value" : 0.0
               },
               {
                  "name" : "end_use_natural_gas_fireplace_m_btu",
                  "value" : 0.0
               },
               {
                  "name" : "end_use_natural_gas_generator_m_btu",
                  "value" : 0.0
               },
               {
                  "name" : "end_use_fuel_oil_heating_m_btu",
[...]
            "step_info" : 
            [
               "Wrote hpxml output to C:/Users/ylou2/Desktop/resstock-3.1.0/euss_test/run1/run/results_hpxml.csv.",
               "Registering 201.2 for enclosure_wall_area_thermal_boundary_ft_2.",
               "Registering 201.2 for enclosure_wall_area_exterior_ft_2.",
               "Registering 0.0 for enclosure_foundation_wall_area_exterior_ft_2.",
               "Registering 1138.0 for enclosure_floor_area_conditioned_ft_2.",
               "Registering 1138.0 for enclosure_floor_area_lighting_ft_2.",
               "Registering 0.0 for enclosure_floor_area_foundation_ft_2.",
               "Registering 0.0 for enclosure_ceiling_area_thermal_boundary_ft_2.",
               "Registering 0.0 for enclosure_roof_area_ft_2.",
               "Registering 60.3 for enclosure_window_area_ft_2.",
               "Registering 0.0 for enclosure_door_area_ft_2.",
               "Registering 0.0 for enclosure_duct_area_unconditioned_ft_2.",
               "Registering 0.0 for enclosure_rim_joist_area_ft_2.",
               "Registering 0.0 for enclosure_slab_exposed_perimeter_thermal_boundary_ft.",
               "Registering 10627.0 for systems_cooling_capacity_btu_h.",
               "Registering 10627.0 for systems_heating_capacity_btu_h.",
               "Registering 16212.0 for systems_heat_pump_backup_capacity_btu_h.",
               "Registering 30.0 for systems_water_heater_tank_volume_gal.",
               "Registering 0.0 for systems_mechanical_ventilation_flow_rate_cfm.",
               "Registering 10627.0 for primary_systems_cooling_capacity_btu_h.",
               "Registering 10627.0 for primary_systems_heating_capacity_btu_h.",
               "Registering 16212.0 for primary_systems_heat_pump_backup_capacity_btu_h."
            ],
            "step_result" : "Success",
            "step_values" : 
            [
               {
                  "name" : "output_format",
                  "value" : "csv"
               },
               {
                  "name" : "enclosure_wall_area_thermal_boundary_ft_2",
                  "value" : 201.19999999999999
               },
               {
                  "name" : "enclosure_wall_area_exterior_ft_2",
                  "value" : 201.19999999999999
               },
               {
                  "name" : "enclosure_foundation_wall_area_exterior_ft_2",
                  "value" : 0.0
               },
               {
                  "name" : "enclosure_floor_area_conditioned_ft_2",
                  "value" : 1138.0
               },
               {
                  "name" : "enclosure_floor_area_lighting_ft_2",
                  "value" : 1138.0
               },
               {
                  "name" : "enclosure_floor_area_foundation_ft_2",
                  "value" : 0.0
               },
               {
                  "name" : "enclosure_ceiling_area_thermal_boundary_ft_2",
                  "value" : 0.0
               },
               {
                  "name" : "enclosure_roof_area_ft_2",
                  "value" : 0.0
               },
               {
                  "name" : "enclosure_window_area_ft_2",
                  "value" : 60.299999999999997
               },
               {
                  "name" : "enclosure_door_area_ft_2",
                  "value" : 0.0
               },
               {
                  "name" : "enclosure_duct_area_unconditioned_ft_2",
                  "value" : 0.0
               },
               {
                  "name" : "enclosure_rim_joist_area_ft_2",
                  "value" : 0.0
               },
               {
                  "name" : "enclosure_slab_exposed_perimeter_thermal_boundary_ft",
                  "value" : 0.0
               },
               {
                  "name" : "systems_cooling_capacity_btu_h",
                  "value" : 10627.0
               },
               {
                  "name" : "systems_heating_capacity_btu_h",
                  "value" : 10627.0
               },
               {
                  "name" : "systems_heat_pump_backup_capacity_btu_h",
                  "value" : 16212.0
               },
               {
                  "name" : "systems_water_heater_tank_volume_gal",
                  "value" : 30.0
               },
               {
                  "name" : "systems_mechanical_ventilation_flow_rate_cfm",
                  "value" : 0.0
               },
               {
                  "name" : "primary_systems_cooling_capacity_btu_h",
                  "value" : 10627.0
               },
               {
                  "name" : "primary_systems_heating_capacity_btu_h",
                  "value" : 10627.0
               },
               {
                  "name" : "primary_systems_heat_pump_backup_capacity_btu_h",
                  "value" : 16212.0
               }
            ],
            "step_warnings" : []
         }
      },
      {
         "arguments" : 
         {
            "output_format" : "csv"
         },
         "measure_dir_name" : "ReportUtilityBills",
         "result" : 
         {
            "completed_at" : "20240227T003219Z",
            "measure_class_name" : "ReportUtilityBills",
            "measure_display_name" : "Utility Bills Report",
            "measure_name" : "report_utility_bills",
            "measure_taxonomy" : "Reporting.QAQC",
            "measure_type" : "ReportingMeasure",
            "measure_uid" : "ca88a425-e59a-4bc4-af51-c7e7d1e960fe",
            "measure_version_id" : "10456a16-b1fc-449f-b7f8-71fbcdabb1c9",
            "measure_version_modified" : "20230401T012721Z",
            "measure_xml_checksum" : "15BF4E57",
            "started_at" : "20240227T003219Z",
            "stderr" : "",
            "stdout" : "",
            "step_errors" : [],
            "step_files" : [],
            "step_info" : [],
            "step_result" : "Success",
            "step_values" : 
            [
               {
                  "name" : "output_format",
                  "value" : "csv"
               }
            ],
            "step_warnings" : []
         }
      },
      {
         "arguments" : 
         {
            "debug" : false
         },
         "measure_dir_name" : "UpgradeCosts",
         "result" : 
         {
            "completed_at" : "20240227T003237Z",
            "measure_class_name" : "UpgradeCosts",
            "measure_display_name" : "Upgrade Costs",
            "measure_name" : "upgrade_costs",
            "measure_taxonomy" : "Reporting.QAQC",
            "measure_type" : "ReportingMeasure",
            "measure_uid" : "ef51212c-acc4-48d7-9b29-cf2a5c6c4449",
            "measure_version_id" : "06b6caf2-3862-4319-a71f-3ec2543f461a",
            "measure_version_modified" : "20230519T144358Z",
            "measure_xml_checksum" : "9BF1E6AC",
            "started_at" : "20240227T003221Z",
            "stderr" : "",
            "stdout" : "",
            "step_errors" : [],
            "step_files" : [],
            "step_info" : 
            [
               "Registering 0.0 for upgrade_cost_usd."
            ],
            "step_result" : "Success",
            "step_values" : 
            [
               {
                  "name" : "debug",
                  "value" : false
               },
               {
                  "name" : "wall_area_above_grade_conditioned_ft_2",
                  "value" : 201.19999999999999
               },
               {
                  "name" : "wall_area_above_grade_exterior_ft_2",
                  "value" : 201.19999999999999
               },
               {
                  "name" : "wall_area_below_grade_ft_2",
                  "value" : 0.0
               },
               {
                  "name" : "floor_area_conditioned_ft_2",
                  "value" : 1138.0
               },
               {
                  "name" : "floor_area_conditioned_infiltration_reduction_ft_2_delta_ach_50",
                  "value" : 0.0
               },
               {
                  "name" : "floor_area_lighting_ft_2",
                  "value" : 1138.0
               },
               {
                  "name" : "floor_area_foundation_ft_2",
                  "value" : 0.0
               },
               {
                  "name" : "floor_area_attic_ft_2",
                  "value" : 0.0
               },
               {
                  "name" : "floor_area_attic_insulation_increase_ft_2_delta_r_value",
                  "value" : 0.0
               },
               {
                  "name" : "roof_area_ft_2",
                  "value" : 0.0
               },
               {
                  "name" : "window_area_ft_2",
                  "value" : 60.299999999999997
               },
               {
                  "name" : "door_area_ft_2",
                  "value" : 0.0
               },
               {
                  "name" : "duct_unconditioned_surface_area_ft_2",
                  "value" : 0.0
               },
               {
                  "name" : "rim_joist_area_above_grade_exterior_ft_2",
                  "value" : 0.0
               },
               {
                  "name" : "slab_perimeter_exposed_conditioned_ft",
                  "value" : 0.0
               },
               {
                  "name" : "size_heating_system_primary_k_btu_h",
                  "value" : 10.630000000000001
               },
               {
                  "name" : "size_heating_system_secondary_k_btu_h",
                  "value" : 0.0
               },
               {
                  "name" : "size_cooling_system_primary_k_btu_h",
                  "value" : 10.630000000000001
               },
               {
                  "name" : "size_heat_pump_backup_primary_k_btu_h",
                  "value" : 16.210000000000001
               },
               {
                  "name" : "size_water_heater_gal",
                  "value" : 30.0
               },
               {
                  "name" : "flow_rate_mechanical_ventilation_cfm",
                  "value" : 0.0
               },
               {
                  "name" : "upgrade_cost_usd",
                  "value" : 0.0
               }
            ],
            "step_warnings" : []
         }
      },
      {
         "arguments" : {},
         "measure_dir_name" : "QOIReport",
         "result" : 
         {
            "completed_at" : "20240227T003239Z",
            "measure_class_name" : "QOIReport",
            "measure_display_name" : "QOI Report",
            "measure_name" : "qoi_report",
            "measure_taxonomy" : "Reporting.QAQC",
            "measure_type" : "ReportingMeasure",
            "measure_uid" : "be0bfc7f-25c6-435a-9acd-2f5fa8ac817d",
            "measure_version_id" : "f5af7f98-7101-4780-8fd7-0b4246505fc1",
            "measure_version_modified" : "20230501T221656Z",
            "measure_xml_checksum" : "15BF4E57",
            "started_at" : "20240227T003239Z",
            "stderr" : "",
            "stdout" : "",
            "step_errors" : [],
            "step_files" : [],
            "step_info" : 
            [
               "Registering 6.51 for qoi_peak_magnitude_use_kw.",
               "Registering 789.0 for qoi_peak_magnitude_timing_hour.",
               "Registering 0.66 for qoi_average_minimum_daily_use_heating_kw.",
               "Registering 0.42 for qoi_average_minimum_daily_use_cooling_kw.",
               "Registering 0.28 for qoi_average_minimum_daily_use_overlap_kw.",
               "Registering 2.44 for qoi_average_maximum_daily_use_heating_kw.",
               "Registering 1.99 for qoi_average_maximum_daily_use_cooling_kw.",
               "Registering 1.91 for qoi_average_maximum_daily_use_overlap_kw.",
               "Registering 15.4 for qoi_average_maximum_daily_timing_heating_hour.",
               "Registering 15.38 for qoi_average_maximum_daily_timing_cooling_hour.",
               "Registering 15.64 for qoi_average_maximum_daily_timing_overlap_hour.",
               "Registering 5.23 for qoi_average_of_top_ten_highest_peaks_use_heating_kw.",
               "Registering 3.11 for qoi_average_of_top_ten_highest_peaks_use_cooling_kw.",
               "Registering 13.82 for qoi_average_of_top_ten_highest_peaks_timing_heating_hour.",
               "Registering 15.55 for qoi_average_of_top_ten_highest_peaks_timing_cooling_hour."
            ],
            "step_result" : "Success",
            "step_values" : 
            [
               {
                  "name" : "qoi_peak_magnitude_use_kw",
                  "value" : 6.5099999999999998
               },
               {
                  "name" : "qoi_peak_magnitude_timing_hour",
                  "value" : 789.0
               },
               {
                  "name" : "qoi_average_minimum_daily_use_heating_kw",
                  "value" : 0.66000000000000003
               },
               {
                  "name" : "qoi_average_minimum_daily_use_cooling_kw",
                  "value" : 0.41999999999999998
               },
               {
                  "name" : "qoi_average_minimum_daily_use_overlap_kw",
                  "value" : 0.28000000000000003
               },
               {
                  "name" : "qoi_average_maximum_daily_use_heating_kw",
                  "value" : 2.4399999999999999
               },
               {
                  "name" : "qoi_average_maximum_daily_use_cooling_kw",
                  "value" : 1.99
               },
               {
                  "name" : "qoi_average_maximum_daily_use_overlap_kw",
                  "value" : 1.9099999999999999
               },
               {
                  "name" : "qoi_average_maximum_daily_timing_heating_hour",
                  "value" : 15.4
               },
               {
                  "name" : "qoi_average_maximum_daily_timing_cooling_hour",
                  "value" : 15.380000000000001
               },
               {
                  "name" : "qoi_average_maximum_daily_timing_overlap_hour",
                  "value" : 15.640000000000001
               },
               {
                  "name" : "qoi_average_of_top_ten_highest_peaks_use_heating_kw",
                  "value" : 5.2300000000000004
               },
               {
                  "name" : "qoi_average_of_top_ten_highest_peaks_use_cooling_kw",
                  "value" : 3.1099999999999999
               },
               {
                  "name" : "qoi_average_of_top_ten_highest_peaks_timing_heating_hour",
                  "value" : 13.82
               },
               {
                  "name" : "qoi_average_of_top_ten_highest_peaks_timing_cooling_hour",
                  "value" : 15.550000000000001
               }
            ],
            "step_warnings" : []
         }
      },
      {
         "arguments" : 
         {
            "debug" : false,
            "retain_eplusout_audit" : false,
            "retain_eplusout_bnd" : false,
            "retain_eplusout_eio" : false,
            "retain_eplusout_end" : false,
            "retain_eplusout_err" : false,
            "retain_eplusout_eso" : false,
            "retain_eplusout_mdd" : false,
            "retain_eplusout_msgpack" : false,
            "retain_eplusout_mtd" : false,
            "retain_eplusout_rdd" : false,
            "retain_eplusout_shd" : false,
            "retain_eplustbl_htm" : false,
            "retain_in_idf" : false,
            "retain_in_osm" : false,
            "retain_pre_process_idf" : false,
            "retain_schedules_csv" : false,
            "retain_stdout_energyplus" : false,
            "retain_stdout_expandobject" : false
         },
         "measure_dir_name" : "ServerDirectoryCleanup",
         "result" : 
         {
            "completed_at" : "20240227T003241Z",
            "measure_class_name" : "ServerDirectoryCleanup",
            "measure_display_name" : "Server Directory Cleanup",
            "measure_name" : "server_directory_cleanup",
            "measure_taxonomy" : "Calibration",
            "measure_type" : "ReportingMeasure",
            "measure_uid" : "ec7d04ad-0b7b-495b-825a-e1b6d28d1d3f",
            "measure_version_id" : "d7831eec-3624-4678-8a03-7ae55c5908d7",
            "measure_version_modified" : "20230406T225316Z",
            "measure_xml_checksum" : "5F1EDF75",
            "started_at" : "20240227T003241Z",
            "stderr" : "",
            "stdout" : "",
            "step_errors" : [],
            "step_files" : [],
            "step_info" : 
            [
               "Deleted ./../in.osm from the run directory.",
               "Deleted ./../in.idf from the run directory.",
               "Deleted ./../pre-preprocess.idf from the run directory.",
               "Deleted ./../eplusout.end from the run directory.",
               "Deleted ./../eplusout.err from the run directory.",
               "Deleted ./../eplusout.msgpack from the run directory.",
               "Deleted ./../eplusout_hourly.msgpack from the run directory.",
               "Deleted ./../eplusout_runperiod.msgpack from the run directory.",
               "Deleted ./../eplustbl.htm from the run directory.",
               "Deleted ./../stdout-energyplus from the run directory.",
               "Deleted ./../stdout-expandobject from the run directory.",
               "Deleted ./../schedules.csv from the run directory."
            ],
            "step_result" : "Success",
            "step_values" : 
            [
               {
                  "name" : "retain_in_osm",
                  "value" : false
               },
               {
                  "name" : "retain_in_idf",
                  "value" : false
               },
               {
                  "name" : "retain_pre_process_idf",
                  "value" : false
               },
               {
                  "name" : "retain_eplusout_audit",
                  "value" : false
               },
               {
                  "name" : "retain_eplusout_bnd",
                  "value" : false
               },
               {
                  "name" : "retain_eplusout_eio",
                  "value" : false
               },
               {
                  "name" : "retain_eplusout_end",
                  "value" : false
               },
               {
                  "name" : "retain_eplusout_err",
                  "value" : false
               },
               {
                  "name" : "retain_eplusout_eso",
                  "value" : false
               },
               {
                  "name" : "retain_eplusout_mdd",
                  "value" : false
               },
               {
                  "name" : "retain_eplusout_mtd",
                  "value" : false
               },
               {
                  "name" : "retain_eplusout_rdd",
                  "value" : false
               },
               {
                  "name" : "retain_eplusout_shd",
                  "value" : false
               },
               {
                  "name" : "retain_eplusout_msgpack",
                  "value" : false
               },
               {
                  "name" : "retain_eplustbl_htm",
                  "value" : false
               },
               {
                  "name" : "retain_stdout_energyplus",
                  "value" : false
               },
               {
                  "name" : "retain_stdout_expandobject",
                  "value" : false
               },
               {
                  "name" : "retain_schedules_csv",
                  "value" : false
               },
               {
                  "name" : "debug",
                  "value" : false
               }
            ],
            "step_warnings" : []
         }
      }
   ],
   "updated_at" : "20240227T003249Z"
}